TION 13168375
NTHE 11234972
THER 10218035
THAT 8980536
OFTH 8132597
FTHE 8100836
THES 7717675
WITH 7627991
INTH 7261789
ATIO 7104943
OTHE 6900574
TTHE 6553056
DTHE 6470280
INGT 6461147
ETHE 6135216
SAND 5996705
STHE 5748611
HERE 5630500
THEC 5466071
MENT 4968019
THEM 4911484
RTHE 4862875
THEP 4458634
FROM 4361347
THIS 4344608
TING 4291641
THEI 4217321
NGTH 4162753
IONS 4045101
ANDT 4020364
ONTH 3976144
TOTH 3911094
EDTO 3886447
THEF 3873133
THEY 3809433
HAVE 3735139
EDTH 3699013
INGA 3675933
NDTH 3619148
THET 3597105
OULD 3545483
ORTH 3527649
EVER 3497988
THEN 3493040
IGHT 3484797
EAND 3469701
ATTH 3465933
THEB 3427984
OVER 3423259
DING 3292159
IONA 3238994
GTHE 3206535
FORT 3183884
THEA 3166891
RING 3085444
ALLY 3058124
ANDS 2964994
EFOR 2911043
INGS 2907686
EDIN 2898263
ANDA 2846852
THIN 2846753
OUGH 2836766
WERE 2833510
ERTH 2823153
YEAR 2760359
WILL 2730404
THEL 2685880
SAID 2672546
HEIR 2630839
NTER 2617394
ENTS 2616976
ECON 2602363
NING 2595587
COMP 2558839
TAND 2556578
SION 2544046
TIME 2541680
OUND 2540743
FORM 2531586
NAND 2512199
LAND 2500203
THEW 2495941
KING 2486033
PORT 2481535
YTHE 2479794
HTHE 2474333
HECO 2463161
ATED 2450352
ANDI 2435091
THED 2432283
INTE 2421896
HING 2415926
NGTO 2346029
SOME 2318831
THEE 2296331
ALSO 2272179
ENTI 2266151
ONAL 2251550
CTIO 2238788
MORE 2226699
ANCE 2222056
EWAS 2221574
STAT 2193875
SIDE 2178067
PART 2177409
THAN 2172227
STHA 2147392
EOFT 2146633
HESE 2140673
SARE 2136673
THEO 2122303
RAND 2121925
CENT 2100779
EDBY 2089468
THEG 2079308
PLAY 2076384
ENCE 2070719
HICH 2066009
SING 2058168
WHIC 2056153
CONT 2051639
EVEN 2044936
AFTE 2010597
FTER 2003476
WHEN 1998236
MBER 1995047
ESTO 1978644
INGI 1961244
ICAL 1957590
NDER 1950266
TIVE 1949528
PRES 1942885
COMM 1940274
INGO 1932406
ABOU 1931491
IONO 1920745
STAN 1918197
HEWA 1911604
ASTH 1910727
SFOR 1907495
IRST 1904773
INTO 1902177
ECOM 1898652
BOUT 1883527
ESTA 1871911
DENT 1867605
WORK 1861950
HATT 1855838
ABLE 1853875
OUNT 1851478
TOBE 1850003
REAT 1842708
INST 1834447
HEST 1826166
NDIN 1824758
DAND 1823795
ETHA 1820247
TERS 1819470
FIRS 1819270
WOUL 1816261
BEEN 1805388
THTH 1803360
ITHT 1802652
ESTH 1794688
HESA 1789360
SINT 1784676
ESAN 1784502
TURE 1774845
VERS 1761482
VERY 1752004
ONOF 1741624
TWAS 1737095
RETH 1732151
YAND 1728503
STER 1721754
COUN 1720141
THEH 1713125
LING 1706713
SOFT 1704206
FORE 1703219
ENTA 1699782
STOR 1697886
CONS 1692766
TATE 1684321
ITIO 1682234
ATHE 1679355
ITHA 1678384
ENTH 1674269
EARS 1674228
TEDT 1672432
ATES 1671091
HEFI 1669464
ERAL 1663096
ATER 1658140
ERIN 1647306
NATI 1646197
ERES 1646142
LIKE 1645573
RATI 1639591
EINT 1637991
NGIN 1629144
UTTH 1626574
ANDW 1617469
ROMT 1612822
REST 1611309
ESTI 1602216
UGHT 1598911
ERED 1592912
ANDC 1591317
ANDH 1584076
THOU 1575289
MTHE 1570742
ASON 1557925
ECTI 1554504
EMEN 1547678
ERAN 1542995
CALL 1542368
ERSA 1540494
WHAT 1537708
DINT 1534038
NTIN 1533224
WASA 1521114
LATE 1517775
EREA 1502648
ALLE 1498817
DFOR 1498486
CIAL 1496185
TOFT 1493341
UNDE 1492863
ERSI 1490158
ANDE 1489807
ENTO 1480948
ILLI 1474587
ERAT 1472424
ERSO 1462656
NFOR 1460850
RENT 1450481
ESIN 1448933
SERV 1448589
RATE 1446541
STRA 1442405
BECA 1441510
CHAN 1439212
MOST 1438813
ANDO 1434745
ANGE 1433384
JUST 1428351
ITIS 1428100
GAME 1413581
EARE 1406547
ICAN 1405493
BACK 1405245
RECO 1403742
OMTH 1397332
HEMA 1391989
VING 1386608
IDEN 1383820
IVER 1382092
HEPR 1379329
VENT 1378744
RESS 1376015
REAL 1373867
AREA 1371458
OINT 1369665
DTHA 1365459
STAR 1363805
HAND 1354970
EACH 1350272
ENTE 1343108
RIES 1335429
OPLE 1323708
EROF 1318205
COME 1317743
ANDP 1315447
AINS 1313653
EDAN 1309134
INES 1308946
EPRO 1307814
ISTH 1306902
EDON 1306416
THEU 1306228
FORA 1303370
ONLY 1303135
GAIN 1297562
ARTI 1296805
HERS 1296238
RESE 1296098
SWIT 1294553
INGF 1294255
SPEC 1293633
ANDM 1293038
EOPL 1292222
TTER 1290823
PEOP 1290562
THRE 1290472
DWIT 1289963
KNOW 1288808
ERST 1288580
INAL 1288381
EMBE 1283314
INAN 1282357
SINC 1279484
ACTI 1277906
STIN 1272931
LONG 1264155
AUSE 1263485
CAUS 1253323
VERA 1252583
ESOF 1250232
EREN 1249439
FFIC 1246165
INGH 1245879
LINE 1244889
VERT 1244237
THRO 1239338
ROUG 1236673
YING 1235516
EASO 1234486
ANDR 1231102
IONT 1226708
LLOW 1218687
URIN 1218178
ONAN 1217217
SWER 1216771
HIST 1212167
ROUN 1208483
CESS 1208310
BYTH 1205765
TAIN 1203509
ETHI 1202933
SCHO 1202417
LECT 1202081
ATIN 1200538
LAST 1199613
ONST 1199002
SNOT 1195698
YOUR 1194475
REAS 1192018
RICA 1185515
NGAN 1180633
CHAR 1178631
ESSI 1175244
HIGH 1170524
TORE 1169727
COND 1169174
MANY 1162938
IONI 1162499
TERT 1159942
ONTO 1157438
TFOR 1156596
TEAM 1156191
HEMO 1153252
CTOR 1153219
HATS 1152311
TAKE 1151598
EPAR 1146846
DERS 1145928
LATI 1145577
NAME 1145492
ORMA 1145460
ANDF 1143755
SEAS 1141342
CHOO 1140139
UNIT 1137054
HENE 1136900
OUTH 1136709
LLIN 1133017
TERA 1132451
FFER 1132285
HATI 1130043
EPLA 1129006
NOTH 1128390
WELL 1124457
ALLO 1123307
TIES 1117015
DONT 1114470
TERN 1113295
PROV 1111766
INGW 1111745
RACT 1111263
SEVE 1107565
ONSI 1107532
USIN 1103635
NESS 1101247
WHER 1093648
CHIN 1086159
LLED 1086147
ITWA 1085399
MAKE 1084610
INGC 1083696
ENDE 1082242
SSIO 1081298
AGAI 1080316
RESI 1080184
POIN 1078898
POLI 1077325
SIGN 1077199
EDWI 1073054
OWER 1072176
NTOF 1069820
OUTT 1066713
CTED 1065574
DOWN 1064961
MAND 1061275
EFIR 1060749
SHOW 1059043
EWIT 1057301
TATI 1055867
EPRE 1055185
STRI 1050277
ARGE 1049660
HOOL 1048757
OFFI 1046599
CREA 1046376
RFOR 1045762
ISTO 1043207
MPLE 1042473
HECA 1042403
ECAU 1041538
ANDB 1040570
TEST 1038285
ATTE 1037532
HELA 1037227
FERE 1036911
ATUR 1035140
LAYE 1035020
HERA 1034185
TURN 1030325
NTHA 1029560
SENT 1029164
RTHA 1028595
METH 1023960
LTHE 1023518
APPE 1023319
COUL 1022978
SECO 1022624
WAST 1021947
USED 1020459
EASE 1018866
EWOR 1017076
ILIT 1016662
ORET 1014721
NCLU 1014356
OUSE 1013530
ALTH 1013296
INED 1012296
UBLI 1010170
EAST 1010081
IOUS 1008946
OMPA 1008219
OPER 1006891
ERTO 1005645
ONTR 1005452
ANDD 1003476
HATH 1001520
HOWE 1000854
INCL 999134
OMET 998665
EING 997998
EVEL 994339
HEHA 993952
STRE 992953
PERS 991550
HETH 991522
BEIN 990614
SHIP 988418
TORY 986800
HOUG 986072
INCE 985675
NTOT 985616
HEWO 985283
TEDA 985062
HOSE 984347
AMER 983492
ESTE 983134
MAIN 982912
EDFO 982639
ISTE 978544
HEAR 977695
ECOU 977384
PUBL 977275
TINT 976998
INGP 976226
RMAN 975603
ESTR 975031
INGL 971985
CLUD 971923
LACE 970783
HEDE 965888
EARL 964297
INDI 962230
CATI 958962
NDED 958694
ERIC 958584
TTLE 955989
HOUS 954540
CAME 954135
LEAS 952946
ONIN 952752
ENER 950939
ONEO 948987
RSON 948659
READ 947103
HEIN 946407
GAND 944505
HROU 943587
WARD 941311
ESSE 940493
TERI 938496
LITY 937945
EATE 937864
HREE 937263
WING 935975
PLAC 934972
TART 934952
ESID 933920
EXPE 933792
FORC 932108
GROU 932038
HEAD 931609
CORD 931083
OWIN 930092
STOF 930023
HERI 929568
BEFO 929506
ISTI 926564
PLAN 925437
HILE 924953
HATW 924847
DURI 924442
SOUT 923939
TTHA 923833
ISHE 922312
WHIL 921043
DITI 920330
ESEN 919874
AMES 919873
ANDL 918600
RECE 918150
HOME 916835
EDAS 916610
LESS 915764
HISS 912143
NINT 911927
SFRO 911881
ODUC 910520
RODU 910277
MEAN 908002
CITY 906015
ENTT 905488
ERVI 904845
OING 903926
ARTE 903798
NEOF 902480
FINA 901889
ISTR 900560
ISCO 898284
ARCH 898233
ININ 896839
EALL 894740
ESAI 894501
HEBA 894451
WORL 893791
MING 891799
ASSE 890585
NMEN 890406
NTED 888714
NDRE 888517
WEVE 887299
INGE 887174
FOUR 886653
INGB 886547
ANIN 885369
ONSA 883984
HERO 883718
SHED 883116
ERFO 881627
TERE 878104
RIGH 877847
ILLE 874214
HEPA 871438
NERA 869691
SIST 869376
LEAD 869140
STRU 868622
HEDI 868517
ARDS 868032
ASED 867037
IVES 866924
ITED 866837
MARK 866238
ARLY 865234
ASSI 863503
MERI 863422
AREN 861675
ORLD 861177
BUTT 861155
INIS 857935
OURS 857791
ONCE 857035
MEDI 854628
ATIV 853230
TSAN 851747
ENIN 851357
NEED 851094
ARES 850611
ASIN 850136
ATCH 850058
MADE 847016
VERN 846808
ICAT 845339
STUD 843876
DEVE 843522
LLBE 843417
PECT 843412
REDI 842726
NALL 842196
EDIT 840952
HEAL 839490
BALL 837896
NNIN 837493
ULDB 837288
NGER 836784
HANG 836602
GREE 836348
NCES 835273
LLTH 834676
RDIN 834494
EART 834430
CTIV 834085
GOVE 832621
ERMA 832280
ELEC 832154
AMIL 829534
ESEA 829048
RIVE 827118
SCON 826453
LDBE 825826
INAT 823798
NTTO 823180
TILL 822687
ITHI 821434
ENTL 820661
ENTR 820028
GOOD 818735
AINT 817185
SETH 816841
TORS 816437
TWEE 814938
EMAN 813859
IONW 813535
OMIN 813476
TICA 812574
INGM 812460
ALLT 811759
DHIS 811139
TEDI 810869
VISI 810762
LION 810350
ETIM 810243
ERET 809649
SHOU 809516
ELEA 808794
TENT 808513
SHAV 807822
ORDE 806848
ERSE 806730
NDAN 805285
VETH 804375
NTRA 803278
ASTE 802441
HEIS 801178
RIEN 798453
AVET 798089
TERM 798088
ARRI 797482
ESPE 796481
GENE 794619
THEV 794492
OGRA 794344
TRAN 793747
COLL 792896
RSAN 791930
ELAT 791658
EREI 791414
ILLB 791012
MISS 790619
WANT 789032
VEST 788289
HEPO 787853
VIDE 787070
MONT 785313
HERT 780922
DTOT 780815
OWEV 780683
SITI 780488
HEBE 779293
RITI 779061
PERI 778764
OLLE 778560
SUPP 778517
COUR 775717
VICE 775699
HENA 774827
ECTE 773724
NTLY 773145
ENSE 772933
HEMI 770993
MPAN 770702
STIL 770686
ERIE 769815
SEOF 768175
LEAR 767830
SONT 767667
WEEK 766068
AKIN 765701
ECHA 764682
LISH 764499
BLIC 764417
ECOR 763055
ASBE 762447
TYOF 760948
NIST 760688
ISTA 760180
ONSO 759125
LOCA 758979
ITIE 758752
ETER 758521
NOFT 758122
AYIN 757940
UALL 757870
LIVE 757583
LOOK 757441
ITAL 756095
PROD 756038
ORME 754828
TANT 754818
THOS 754252
DIST 752794
IMES 751601
NDOF 751115
LYTH 750761
REDT 749433
ISIN 749328
SONA 748704
TOCO 748071
TORI 746197
REIN 746032
MEMB 745866
PECI 745611
REMA 745382
ARTO 744074
TSIN 743014
ISSI 742525
SEDT 741284
BOTH 740387
NSTA 740242
ERNA 739769
HINK 739742
SURE 738814
ERSH 738421
LETO 738365
TABL 738206
TOMA 737967
EHAS 737805
DIFF 737505
AYER 735828
TRAC 735394
ULAR 735297
BUIL 735108
STTH 735057
ANTS 733854
HATA 732912
RAIN 732821
NEDT 732566
LITI 732516
MATE 732508
LLIO 731449
YFOR 731341
HECH 731329
TALL 729176
EDAT 728973
ESSA 728671
TRIC 728513
SAME 728014
PERA 727806
GHTH 727642
ORDI 725616
BUTI 725177
TREA 724789
NHIS 724574
MUCH 724183
LIST 723535
ICES 723102
REVE 722117
MANA 721865
RANC 721603
OURT 720508
ONES 720283
EMOR 719542
MOVE 719363
TRAT 718681
SUCH 718280
ERCE 717595
TRAI 716028
BASE 714858
HEFO 714820
ARED 714432
NEVE 714087
TWIT 713369
ATOR 711887
GOIN 711292
TSOF 710558
SELF 710103
HENT 709802
RECT 708410
GREA 708363
NCET 707916
RENC 707316
CARE 706877
THAS 706509
STRO 705635
CHAS 704941
AAND 704810
OMAN 704728
VELO 704001
STED 703407
TSTH 702849
OUTO 702834
ENSI 702704
RSTO 702359
ERVE 701979
RINT 701951
NDCO 701759
EFRO 701096
ASAN 700718
ALLI 699950
TTIN 699899
INCO 699198
ESHO 699063
FAMI 698400
TSTO 698247
ANOT 698205
OFFE 698190
EMAI 697613
LASS 697204
EENT 697048
ETTE 696464
HISC 696400
WEST 696374
ALIT 696027
DBYT 695948
HOUL 695509
ACCO 695208
NGOF 694856
OMPL 694572
RTER 692713
HISP 692441
TOGE 692377
NEAR 691815
SIVE 691197
TEND 690309
INGD 689798
RTED 689287
YSTE 688393
GIVE 688253
HETO 688136
ALON 687872
GEST 687831
ISIO 687715
EATH 687274
OWTH 687169
CETH 687142
RANS 686028
NTRO 685530
TEDB 685496
EDHI 685448
CEOF 685271
DINA 684943
AINE 684513
SCOM 684219
ISNO 683973
EFIN 683749
HELP 683380
ETOT 682693
RDER 682581
AVEA 682487
ORTA 682305
RESP 682065
ILLA 681450
SOCI 680245
INDE 679690
INGR 678824
RTOF 678406
FOUN 678236
ITHO 677669
ENTU 677586
HASB 677399
SSIN 676913
NDIT 676584
SHES 675771
ROMA 675502
DNOT 675469
OGET 675232
HISF 675038
IELD 674589
NDSO 674425
DOES 674349
RIST 673820
EUNI 673148
CHIL 673123
ROVE 672544
IESA 672491
NTTH 671847
RSIN 671269
ONSE 671204
SPRO 670834
EREC 670354
SBEE 669930
MILL 668898
LYIN 668062
PPOR 668025
NTSA 667533
STON 666435
HEME 665834
ERRE 665678
JECT 665674
NWAS 665603
OMES 665537
ROFT 665504
ORES 665184
USTR 664907
SALS 664813
URES 664335
ARIN 664047
OLIC 663033
TMEN 662993
ECAM 662562
ROVI 662359
MINI 662322
ETWE 662278
RELA 662015
HESO 661759
NGFO 661337
EIGH 661249
NSTR 660898
HEUN 660673
SONS 659537
CATE 659234
ESER 657537
DUCT 657034
HEEN 656630
EYOU 656545
ASTO 656479
NORT 656235
LDIN 655806
ALAN 655785
LIFE 655334
SSES 655053
HELE 654479
ERSW 654431
HISW 654125
BLET 654021
ALLA 653208
STIC 652763
RALL 652414
MUNI 652270
NTHI 652141
MATI 651722
ONTI 650736
STOP 650514
ITYO 650393
OPEN 650155
ARKE 648697
PERC 648243
EATT 647683
ISON 647451
ITIC 646549
NSAN 646104
CHES 645447
DEDT 645362
ALIN 644376
MALL 644138
ASTA 644037
ORCE 643310
UEST 642113
LOWE 641632
WEEN 640619
TRUC 640382
ANTH 640196
HASA 639774
IDER 639593
AKES 639553
ITTE 639330
ACHE 638921
IVED 638877
STEM 638623
DEFE 638159
DERA 637452